<?xml version="1.0" encoding="UTF-8"?>
<nodes>
    <node id="center" x="0.0" y="0.0" type="traffic_light"/>
    <node id="north"  x="0.0" y="100.0" type="dead_end"/>
    <node id="south"  x="0.0" y="-100.0" type="dead_end"/>
    <node id="east"   x="100.0" y="0.0" type="dead_end"/>
    <node id="west"   x="-100.0" y="0.0" type="dead_end"/>
</nodes>